REMARK  6 active torsions:
REMARK  status: ('A' for Active; 'I' for Inactive)
REMARK    1  A    between atoms: C1_8423  and  O25_8447 
REMARK    2  A    between atoms: C2_8424  and  O27_8449 
REMARK    3  A    between atoms: C8_8430  and  C10_8432 
REMARK    4  A    between atoms: C10_8432  and  C11_8433 
REMARK    5  A    between atoms: N14_8436  and  C17_8439 
REMARK    6  A    between atoms: C17_8439  and  C18_8440 
ROOT
HETATM    1  C1  E20 A 604     -18.530 -41.928  24.258  1.00 28.11     0.116 A 
HETATM    2  C2  E20 A 604     -18.970 -41.862  25.566  1.00 29.82     0.116 A 
HETATM    3  C3  E20 A 604     -18.125 -42.222  26.615  1.00 27.24     0.022 A 
HETATM    4  C4  E20 A 604     -16.817 -42.659  26.338  1.00 28.88    -0.017 A 
HETATM    5  C5  E20 A 604     -16.370 -42.740  25.037  1.00 21.11     0.033 A 
HETATM    6  C6  E20 A 604     -17.234 -42.369  23.979  1.00 24.23     0.029 A 
HETATM    7  C7  E20 A 604     -14.962 -43.221  24.996  1.00 21.45     0.173 A 
HETATM    8  C8  E20 A 604     -14.502 -43.478  26.419  1.00 21.95     0.066 A 
HETATM    9  C9  E20 A 604     -15.710 -43.107  27.282  1.00 23.11     0.034 A 
HETATM   10  O24 E20 A 604     -14.278 -43.362  23.959  1.00 20.32    -0.291 OA
ENDROOT
BRANCH   1  11
HETATM   11  O25 E20 A 604     -19.387 -41.562  23.244  1.00 34.07    -0.326 OA
HETATM   12  C26 E20 A 604     -18.995 -41.561  21.931  1.00 26.33     0.181 C 
ENDBRANCH   1  11
BRANCH   2  13
HETATM   13  O27 E20 A 604     -20.264 -41.407  25.839  1.00 29.28    -0.326 OA
HETATM   14  C28 E20 A 604     -20.658 -41.266  27.175  1.00 26.93     0.181 C 
ENDBRANCH   2  13
BRANCH   8  15
HETATM   15  C10 E20 A 604     -13.970 -44.894  26.642  1.00 23.90     0.008 C 
BRANCH  15  16
HETATM   16  C11 E20 A 604     -12.925 -44.965  27.776  1.00 26.06     0.004 C 
HETATM   17  C16 E20 A 604     -12.257 -46.328  27.808  1.00 24.83     0.024 C 
HETATM   18  C15 E20 A 604     -11.189 -46.351  28.862  1.00 27.09     0.097 C 
HETATM   19  N14 E20 A 604     -11.729 -46.166  30.212  1.00 27.35    -0.365 N 
HETATM   20  C13 E20 A 604     -12.529 -44.933  30.274  1.00 19.70     0.097 C 
HETATM   21  C12 E20 A 604     -13.505 -44.756  29.141  1.00 22.17     0.024 C 
BRANCH  19  22
HETATM   22  C17 E20 A 604     -10.962 -46.545  31.395  1.00 28.49     0.124 C 
BRANCH  22  23
HETATM   23  C18 E20 A 604      -9.698 -45.708  31.539  1.00 25.74    -0.000 A 
HETATM   24  C23 E20 A 604      -8.475 -46.200  31.051  1.00 23.15    -0.002 A 
HETATM   25  C22 E20 A 604      -7.317 -45.434  31.176  1.00 27.03    -0.000 A 
HETATM   26  C21 E20 A 604      -7.363 -44.171  31.800  1.00 25.11    -0.000 A 
HETATM   27  C20 E20 A 604      -8.576 -43.676  32.286  1.00 22.22    -0.000 A 
HETATM   28  C19 E20 A 604      -9.740 -44.445  32.158  1.00 21.81    -0.002 A 
ENDBRANCH  22  23
ENDBRANCH  19  22
ENDBRANCH  15  16
ENDBRANCH   8  15
TORSDOF 6
